#======================================================================

# CRYSTAL DATA

#----------------------------------------------------------------------

data_VESTA_phase_1


_pd_phase_name                         'Ni3HITP2-crystal                      '
_cell_length_a                         21.84996
_cell_length_b                         21.74048
_cell_length_c                         6.54892
_cell_angle_alpha                      90.03271
_cell_angle_beta                       90.02859
_cell_angle_gamma                      60.17352
_symmetry_space_group_name_H-M         'P 1'
_symmetry_Int_Tables_number            1

loop_
_symmetry_equiv_pos_as_xyz
   'x, y, z'

loop_
   _atom_site_label
   _atom_site_occupancy
   _atom_site_fract_x
   _atom_site_fract_y
   _atom_site_fract_z
   _atom_site_adp_type
   _atom_site_B_iso_or_equiv
   _atom_site_type_symbol
   C1         1.0     0.532706      0.860478      0.997614     Biso  1.000000 C
   C2         1.0     0.536062      0.794721      0.997473     Biso  1.000000 C
   C3         1.0     0.600629      0.731169      0.997109     Biso  1.000000 C
   C4         1.0     0.665617      0.733494      0.996560     Biso  1.000000 C
   C5         1.0     0.662268      0.799323      0.996441     Biso  1.000000 C
   C6         1.0     0.597577      0.862721      0.997150     Biso  1.000000 C
   C7         1.0     0.602676      0.663419      0.997291     Biso  1.000000 C
   C8         1.0     0.733201      0.667713      0.996316     Biso  1.000000 C
   C9         1.0     0.734664      0.600336      0.997144     Biso  1.000000 C
   C10        1.0     0.669441      0.597995      0.997461     Biso  1.000000 C
   C11        1.0     0.799768      0.537577      0.997611     Biso  1.000000 C
   C12        1.0     0.863116      0.538461      0.997311     Biso  1.000000 C
   C13        1.0     0.862051      0.605371      0.996388     Biso  1.000000 C
   C14        1.0     0.796811      0.668351      0.995827     Biso  1.000000 C
   C15        1.0     0.540374      0.660314      0.997227     Biso  1.000000 C
   C16        1.0     0.541134      0.595802      0.997520     Biso  1.000000 C
   C17        1.0     0.607467      0.530296      0.997746     Biso  1.000000 C
   C18        1.0     0.669948      0.533169      0.997659     Biso  1.000000 C
   C19        1.0     0.137573      0.467521      0.997710     Biso  1.000000 C
   C20        1.0     0.202813      0.465225      0.997253     Biso  1.000000 C
   C21        1.0     0.266381      0.400963      0.997184     Biso  1.000000 C
   C22        1.0     0.264920      0.335105      0.997940     Biso  1.000000 C
   C23        1.0     0.199750      0.337484      0.998866     Biso  1.000000 C
   C24        1.0     0.136458      0.401711      0.998762     Biso  1.000000 C
   C25        1.0     0.333966      0.399219      0.996813     Biso  1.000000 C
   C26        1.0     0.330079      0.267568      0.997747     Biso  1.000000 C
   C27        1.0     0.396881      0.266234      0.997709     Biso  1.000000 C
   C28        1.0     0.398958      0.331944      0.997424     Biso  1.000000 C
   C29        1.0     0.459136      0.200875      0.997904     Biso  1.000000 C
   C30        1.0     0.458362      0.137112      0.997897     Biso  1.000000 C
   C31        1.0     0.392006      0.137930      0.997708     Biso  1.000000 C
   C32        1.0     0.329534      0.203273      0.997525     Biso  1.000000 C
   C33        1.0     0.337282      0.461686      0.996481     Biso  1.000000 C
   C34        1.0     0.401996      0.460422      0.997361     Biso  1.000000 C
   C35        1.0     0.466855      0.393345      0.997946     Biso  1.000000 C
   C36        1.0     0.463534      0.330914      0.997818     Biso  1.000000 C
   C37        1.0     0.541592      0.945157      0.499188     Biso  1.000000 C
   C38        1.0     0.540810      0.881403      0.499096     Biso  1.000000 C
   C39        1.0     0.602977      0.815999      0.497855     Biso  1.000000 C
   C40        1.0     0.669802      0.814583      0.497515     Biso  1.000000 C
   C41        1.0     0.670386      0.878883      0.498101     Biso  1.000000 C
   C42        1.0     0.607962      0.944295      0.498671     Biso  1.000000 C
   C43        1.0     0.600830      0.750324      0.497527     Biso  1.000000 C
   C44        1.0     0.734896      0.747005      0.496972     Biso  1.000000 C
   C45        1.0     0.733378      0.681185      0.497423     Biso  1.000000 C
   C46        1.0     0.665765      0.682993      0.497553     Biso  1.000000 C
   C47        1.0     0.796933      0.616903      0.498042     Biso  1.000000 C
   C48        1.0     0.862197      0.614573      0.498044     Biso  1.000000 C
   C49        1.0     0.863364      0.680368      0.497001     Biso  1.000000 C
   C50        1.0     0.800086      0.744584      0.496419     Biso  1.000000 C
   C51        1.0     0.536217      0.751452      0.497794     Biso  1.000000 C
   C52        1.0     0.532755      0.689096      0.498357     Biso  1.000000 C
   C53        1.0     0.597565      0.621975      0.498560     Biso  1.000000 C
   C54        1.0     0.662333      0.620597      0.498031     Biso  1.000000 C
   C55        1.0     0.136668      0.543702      0.497595     Biso  1.000000 C
   C56        1.0     0.200007      0.544594      0.497029     Biso  1.000000 C
   C57        1.0     0.265131      0.481870      0.497646     Biso  1.000000 C
   C58        1.0     0.266623      0.414472      0.498272     Biso  1.000000 C
   C59        1.0     0.203060      0.413766      0.499004     Biso  1.000000 C
   C60        1.0     0.137799      0.476738      0.498754     Biso  1.000000 C
   C61        1.0     0.330267      0.484319      0.497984     Biso  1.000000 C
   C62        1.0     0.334239      0.348703      0.498282     Biso  1.000000 C
   C63        1.0     0.399148      0.351161      0.498123     Biso  1.000000 C
   C64        1.0     0.397033      0.418946      0.498303     Biso  1.000000 C
   C65        1.0     0.463770      0.287660      0.498334     Biso  1.000000 C
   C66        1.0     0.467241      0.221848      0.498817     Biso  1.000000 C
   C67        1.0     0.402437      0.219494      0.498928     Biso  1.000000 C
   C68        1.0     0.337683      0.282829      0.498546     Biso  1.000000 C
   C69        1.0     0.329708      0.549200      0.498429     Biso  1.000000 C
   C70        1.0     0.392157      0.552141      0.498866     Biso  1.000000 C
   C71        1.0     0.458503      0.486648      0.499311     Biso  1.000000 C
   C72        1.0     0.459273      0.422140      0.499410     Biso  1.000000 C
   H1         1.0     0.797251      0.718189      0.995146     Biso  1.000000 H
   H2         1.0     0.802628      0.486102      0.998759     Biso  1.000000 H
   H3         1.0     0.710130      0.803045      0.995790     Biso  1.000000 H
   H4         1.0     0.486482      0.794241      0.997554     Biso  1.000000 H
   H5         1.0     0.489120      0.708446      0.996673     Biso  1.000000 H
   H6         1.0     0.719560      0.483063      0.997579     Biso  1.000000 H
   H7         1.0     0.642993      0.424673      0.998574     Biso  1.000000 H
   H8         1.0     0.629080      0.935714      0.996376     Biso  1.000000 H
   H9         1.0     0.427440      0.928313      0.997861     Biso  1.000000 H
   H10        1.0     0.436800      0.629064      0.996699     Biso  1.000000 H
   H11        1.0     0.931425      0.641330      0.994967     Biso  1.000000 H
   H12        1.0     0.934188      0.433596      0.999012     Biso  1.000000 H
   H13        1.0     0.279888      0.202814      0.996900     Biso  1.000000 H
   H14        1.0     0.510404      0.197746      0.997907     Biso  1.000000 H
   H15        1.0     0.196830      0.288883      0.999798     Biso  1.000000 H
   H16        1.0     0.202415      0.515479      0.996854     Biso  1.000000 H
   H17        1.0     0.289402      0.513263      0.995780     Biso  1.000000 H
   H18        1.0     0.513112      0.280841      0.997959     Biso  1.000000 H
   H19        1.0     0.572101      0.356041      0.998258     Biso  1.000000 H
   H20        1.0     0.065267      0.368003      0.000147     Biso  1.000000 H
   H21        1.0     0.068189      0.572942      0.996398     Biso  1.000000 H
   H22        1.0     0.370357      0.564902      0.996123     Biso  1.000000 H
   H23        1.0     0.356494      0.067816      0.997579     Biso  1.000000 H
   H24        1.0     0.562658      0.066187      0.997562     Biso  1.000000 H
   H25        1.0     0.803026      0.793156      0.496063     Biso  1.000000 H
   H26        1.0     0.797279      0.566678      0.498900     Biso  1.000000 H
   H27        1.0     0.720075      0.879265      0.498506     Biso  1.000000 H
   H28        1.0     0.489523      0.884579      0.500099     Biso  1.000000 H
   H29        1.0     0.486684      0.801558      0.497698     Biso  1.000000 H
   H30        1.0     0.710142      0.568960      0.498509     Biso  1.000000 H
   H31        1.0     0.629110      0.517522      0.500347     Biso  1.000000 H
   H32        1.0     0.643594      0.014316      0.499007     Biso  1.000000 H
   H33        1.0     0.437284      0.016145      0.501227     Biso  1.000000 H
   H34        1.0     0.427451      0.726604      0.498618     Biso  1.000000 H
   H35        1.0     0.934527      0.714116      0.496189     Biso  1.000000 H
   H36        1.0     0.931519      0.509176      0.500196     Biso  1.000000 H
   H37        1.0     0.289858      0.279017      0.498827     Biso  1.000000 H
   H38        1.0     0.513308      0.288236      0.498274     Biso  1.000000 H
   H39        1.0     0.202672      0.363911      0.499903     Biso  1.000000 H
   H40        1.0     0.197067      0.596099      0.496393     Biso  1.000000 H
   H41        1.0     0.280053      0.599281      0.498872     Biso  1.000000 H
   H42        1.0     0.510537      0.374034      0.500390     Biso  1.000000 H
   H43        1.0     0.562819      0.453443      0.501337     Biso  1.000000 H
   H44        1.0     0.068470      0.440684      0.500645     Biso  1.000000 H
   H45        1.0     0.065575      0.648598      0.496314     Biso  1.000000 H
   H46        1.0     0.356532      0.657810      0.498942     Biso  1.000000 H
   H47        1.0     0.370969      0.146495      0.500202     Biso  1.000000 H
   H48        1.0     0.572539      0.154134      0.499398     Biso  1.000000 H
   N1         1.0     0.598435      0.473243      0.997849     Biso  1.000000 N
   N2         1.0     0.485713      0.585144      0.997515     Biso  1.000000 N
   N3         1.0     0.929176      0.482827      0.998012     Biso  1.000000 N
   N4         1.0     0.927310      0.596641      0.996353     Biso  1.000000 N
   N5         1.0     0.585882      0.929356      0.996837     Biso  1.000000 N
   N6         1.0     0.475286      0.925855      0.997918     Biso  1.000000 N
   N7         1.0     0.524220      0.401393      0.998306     Biso  1.000000 N
   N8         1.0     0.413618      0.515398      0.997335     Biso  1.000000 N
   N9         1.0     0.513767      0.071090      0.997897     Biso  1.000000 N
   N10        1.0     0.401040      0.071871      0.997584     Biso  1.000000 N
   N11        1.0     0.070347      0.412187      0.999312     Biso  1.000000 N
   N12        1.0     0.072332      0.524123      0.997086     Biso  1.000000 N
   N13        1.0     0.585870      0.567048      0.499514     Biso  1.000000 N
   N14        1.0     0.475296      0.681201      0.499093     Biso  1.000000 N
   N15        1.0     0.927429      0.557979      0.499071     Biso  1.000000 N
   N16        1.0     0.929482      0.669925      0.496958     Biso  1.000000 N
   N17        1.0     0.598997      0.010349      0.499219     Biso  1.000000 N
   N18        1.0     0.486203      0.011168      0.500075     Biso  1.000000 N
   N19        1.0     0.513891      0.497349      0.500008     Biso  1.000000 N
   N20        1.0     0.401108      0.609247      0.499281     Biso  1.000000 N
   N21        1.0     0.524729      0.156510      0.499440     Biso  1.000000 N
   N22        1.0     0.414182      0.152832      0.499637     Biso  1.000000 N
   N23        1.0     0.072570      0.485404      0.499460     Biso  1.000000 N
   N24        1.0     0.070608      0.599362      0.497286     Biso  1.000000 N
   Ni1        1.0     0.506006      0.493321      0.997851     Biso  1.000000 Ni
   Ni2        1.0     0.999809      0.504633      0.997723     Biso  1.000000 Ni
   Ni3        1.0     0.493467      0.999570      0.997595     Biso  1.000000 Ni
   Ni4        1.0     0.000014      0.577457      0.498312     Biso  1.000000 Ni
   Ni5        1.0     0.493491      0.589215      0.499529     Biso  1.000000 Ni
   Ni6        1.0     0.506583      0.082683      0.499702     Biso  1.000000 Ni
